<?xml version="1.0" encoding="UTF-8"?>
<Package xmlns="http://soap.sforce.com/2006/04/metadata">
    <types>
        <members>Load_Workday_Customer_Context</members>
        <members>Route_Workday_To_Queue</members>
        <members>Create_Workday_Support_Case</members>
        <name>Flow</name>
    </types>
    <types>
        <members>Account</members>
        <members>Contact</members>
        <members>Opportunity</members>
        <members>Case</members>
        <name>CustomObject</name>
    </types>
    <version>66.0</version>
</Package>